<configuration xmlns:xsi="http://www.w3.org/2001/XMLSchema-instance" xsi:noNamespaceSchemaLocation="http://sumo.dlr.de/xsd/duarouterConfiguration.xsd">

    <input>
           <net-file value="xx10.net.xml"/>
        <route-files value="xx10.rou.xml"/>
    </input>


</configuration>