<?xml version="1.0" encoding="UTF-8"?>

<!-- generated on 03/13/21 10:35:32 by Eclipse SUMO netedit Version 1.7.0
<configuration xmlns:xsi="http://www.w3.org/2001/XMLSchema-instance" xsi:noNamespaceSchemaLocation="http://sumo.dlr.de/xsd/netconvertConfiguration.xsd">

    <input>
        <sumo-net-file value="xx10.net.xml"/>
    </input>

    <output>
        <output-file value="xx10.net.xml"/>
    </output>

    <processing>
        <geometry.min-radius.fix.railways value="false"/>
        <geometry.max-grade.fix value="false"/>
        <offset.disable-normalization value="true"/>
        <lefthand value="false"/>
    </processing>

    <junctions>
        <no-turnarounds value="true"/>
        <junctions.corner-detail value="5"/>
        <junctions.limit-turn-speed value="5.5"/>
        <rectangular-lane-cut value="false"/>
    </junctions>

    <pedestrian>
        <walkingareas value="false"/>
    </pedestrian>

    <report>
        <aggregate-warnings value="5"/>
    </report>

</configuration>
-->

<net version="1.6" junctionCornerDetail="5" limitTurnSpeed="5.50" xmlns:xsi="http://www.w3.org/2001/XMLSchema-instance" xsi:noNamespaceSchemaLocation="http://sumo.dlr.de/xsd/net_file.xsd">

    <location netOffset="0.00,0.00" convBoundary="0.00,0.00,2000.00,2000.00" origBoundary="0.00,0.00,2000.00,2000.00" projParameter="!"/>

    <type id="2L10" priority="3" numLanes="2" speed="10.00"/>
    <type id="2L15" priority="3" numLanes="2" speed="15.00"/>
    <type id="2L20" priority="3" numLanes="2" speed="20.00"/>
    <type id="2L25" priority="4" numLanes="2" speed="25.00"/>

    <edge id=":0_0" function="internal">
        <lane id=":0_0_0" index="0" speed="8.96" length="18.06" shape="-4.80,6.40 -4.10,1.50 -2.00,-2.00 1.50,-4.10 6.40,-4.80"/>
    </edge>
    <edge id=":0_1" function="internal">
        <lane id=":0_1_0" index="0" speed="7.66" length="12.90" shape="-1.60,6.40 -1.10,2.90 0.40,0.40 2.90,-1.10 6.40,-1.60"/>
    </edge>
    <edge id=":0_2" function="internal">
        <lane id=":0_2_0" index="0" speed="3.90" length="2.58" shape="6.40,4.80 5.70,4.90 5.20,5.20 4.90,5.70 4.80,6.40"/>
    </edge>
    <edge id=":0_3" function="internal">
        <lane id=":0_3_0" index="0" speed="6.08" length="7.74" shape="6.40,1.60 4.30,1.90 2.80,2.80 1.90,4.30 1.60,6.40"/>
    </edge>
    <edge id=":1_0" function="internal">
        <lane id=":1_0_0" index="0" speed="8.96" length="18.06" shape="6.40,2004.80 1.50,2004.10 -2.00,2002.00 -4.10,1998.50 -4.80,1993.60"/>
    </edge>
    <edge id=":1_1" function="internal">
        <lane id=":1_1_0" index="0" speed="7.66" length="12.90" shape="6.40,2001.60 2.90,2001.10 0.40,1999.60 -1.10,1997.10 -1.60,1993.60"/>
    </edge>
    <edge id=":1_2" function="internal">
        <lane id=":1_2_0" index="0" speed="3.65" length="2.56" shape="6.40,2001.60 5.20,2000.80 4.80,2000.00 4.90,1999.80"/>
    </edge>
    <edge id=":1_6" function="internal">
        <lane id=":1_6_0" index="0" speed="3.65" length="2.12" shape="4.90,1999.80 5.20,1999.20 6.40,1998.40"/>
    </edge>
    <edge id=":1_3" function="internal">
        <lane id=":1_3_0" index="0" speed="3.90" length="2.58" shape="4.80,1993.60 4.90,1994.30 5.20,1994.80 5.70,1995.10 6.40,1995.20"/>
    </edge>
    <edge id=":1_4" function="internal">
        <lane id=":1_4_0" index="0" speed="6.08" length="7.74" shape="1.60,1993.60 1.90,1995.70 2.80,1997.20 4.30,1998.10 6.40,1998.40"/>
    </edge>
    <edge id=":1_5" function="internal">
        <lane id=":1_5_0" index="0" speed="3.65" length="2.08" shape="1.60,1993.60 0.80,1994.80 0.23,1995.09"/>
    </edge>
    <edge id=":1_7" function="internal">
        <lane id=":1_7_0" index="0" speed="3.65" length="2.59" shape="0.23,1995.09 0.00,1995.20 -0.80,1994.80 -1.60,1993.60"/>
    </edge>
    <edge id=":2_0" function="internal">
        <lane id=":2_0_0" index="0" speed="3.90" length="2.58" shape="1995.20,6.40 1995.10,5.70 1994.80,5.20 1994.30,4.90 1993.60,4.80"/>
    </edge>
    <edge id=":2_1" function="internal">
        <lane id=":2_1_0" index="0" speed="6.08" length="7.74" shape="1998.40,6.40 1998.10,4.30 1997.20,2.80 1995.70,1.90 1993.60,1.60"/>
    </edge>
    <edge id=":2_2" function="internal">
        <lane id=":2_2_0" index="0" speed="8.96" length="18.06" shape="1993.60,-4.80 1998.50,-4.10 2002.00,-2.00 2004.10,1.50 2004.80,6.40"/>
    </edge>
    <edge id=":2_3" function="internal">
        <lane id=":2_3_0" index="0" speed="7.66" length="12.90" shape="1993.60,-1.60 1997.10,-1.10 1999.60,0.40 2001.10,2.90 2001.60,6.40"/>
    </edge>
    <edge id=":3_0" function="internal">
        <lane id=":3_0_0" index="0" speed="8.96" length="18.06" shape="2004.80,1993.60 2004.10,1998.50 2002.00,2002.00 1998.50,2004.10 1993.60,2004.80"/>
    </edge>
    <edge id=":3_1" function="internal">
        <lane id=":3_1_0" index="0" speed="7.66" length="12.90" shape="2001.60,1993.60 2001.10,1997.10 1999.60,1999.60 1997.10,2001.10 1993.60,2001.60"/>
    </edge>
    <edge id=":3_2" function="internal">
        <lane id=":3_2_0" index="0" speed="3.90" length="2.58" shape="1993.60,1995.20 1994.30,1995.10 1994.80,1994.80 1995.10,1994.30 1995.20,1993.60"/>
    </edge>
    <edge id=":3_3" function="internal">
        <lane id=":3_3_0" index="0" speed="6.08" length="7.74" shape="1993.60,1998.40 1995.70,1998.10 1997.20,1997.20 1998.10,1995.70 1998.40,1993.60"/>
    </edge>

    <edge id="E_0_1" from="0" to="1" priority="3" type="2L10">
        <lane id="E_0_1_0" index="0" speed="10.00" length="1987.20" shape="4.80,6.40 4.80,1993.60"/>
        <lane id="E_0_1_1" index="1" speed="10.00" length="1987.20" shape="1.60,6.40 1.60,1993.60"/>
    </edge>
    <edge id="E_0_2" from="0" to="2" priority="3" type="2L10">
        <lane id="E_0_2_0" index="0" speed="10.00" length="1987.20" shape="6.40,-4.80 1993.60,-4.80"/>
        <lane id="E_0_2_1" index="1" speed="10.00" length="1987.20" shape="6.40,-1.60 1993.60,-1.60"/>
    </edge>
    <edge id="E_1_0" from="1" to="0" priority="3" type="2L10">
        <lane id="E_1_0_0" index="0" speed="10.00" length="1987.20" shape="-4.80,1993.60 -4.80,6.40"/>
        <lane id="E_1_0_1" index="1" speed="10.00" length="1987.20" shape="-1.60,1993.60 -1.60,6.40"/>
    </edge>
    <edge id="E_1_3" from="1" to="3" priority="3" type="2L10">
        <lane id="E_1_3_0" index="0" speed="10.00" length="1987.20" shape="6.40,1995.20 1993.60,1995.20"/>
        <lane id="E_1_3_1" index="1" speed="10.00" length="1987.20" shape="6.40,1998.40 1993.60,1998.40"/>
    </edge>
    <edge id="E_2_0" from="2" to="0" priority="3" type="2L10">
        <lane id="E_2_0_0" index="0" speed="10.00" length="1987.20" shape="1993.60,4.80 6.40,4.80"/>
        <lane id="E_2_0_1" index="1" speed="10.00" length="1987.20" shape="1993.60,1.60 6.40,1.60"/>
    </edge>
    <edge id="E_2_3" from="2" to="3" priority="3" type="2L10">
        <lane id="E_2_3_0" index="0" speed="10.00" length="1987.20" shape="2004.80,6.40 2004.80,1993.60"/>
        <lane id="E_2_3_1" index="1" speed="10.00" length="1987.20" shape="2001.60,6.40 2001.60,1993.60"/>
    </edge>
    <edge id="E_3_1" from="3" to="1" priority="3" type="2L10">
        <lane id="E_3_1_0" index="0" speed="10.00" length="1987.20" shape="1993.60,2004.80 6.40,2004.80"/>
        <lane id="E_3_1_1" index="1" speed="10.00" length="1987.20" shape="1993.60,2001.60 6.40,2001.60"/>
    </edge>
    <edge id="E_3_2" from="3" to="2" priority="3" type="2L10">
        <lane id="E_3_2_0" index="0" speed="10.00" length="1987.20" shape="1995.20,1993.60 1995.20,6.40"/>
        <lane id="E_3_2_1" index="1" speed="10.00" length="1987.20" shape="1998.40,1993.60 1998.40,6.40"/>
    </edge>

    <tlLogic id="0" type="static" programID="0" offset="0">
        <phase duration="42" state="GGGG"/>
        <phase duration="3"  state="yyyy"/>
        <phase duration="42" state="GGGG"/>
        <phase duration="3"  state="yyyy"/>
    </tlLogic>
    <tlLogic id="1" type="static" programID="0" offset="0">
        <phase duration="42" state="GGgGGr"/>
        <phase duration="3"  state="yyyyyr"/>
        <phase duration="42" state="GGrGGg"/>
        <phase duration="3"  state="yyryyy"/>
    </tlLogic>
    <tlLogic id="2" type="static" programID="0" offset="0">
        <phase duration="42" state="GGGG"/>
        <phase duration="3"  state="yyyy"/>
        <phase duration="42" state="GGGG"/>
        <phase duration="3"  state="yyyy"/>
    </tlLogic>
    <tlLogic id="3" type="static" programID="0" offset="0">
        <phase duration="42" state="GGGG"/>
        <phase duration="3"  state="yyyy"/>
        <phase duration="42" state="GGGG"/>
        <phase duration="3"  state="yyyy"/>
    </tlLogic>

    <junction id="0" type="traffic_light" x="0.00" y="0.00" incLanes="E_1_0_0 E_1_0_1 E_2_0_0 E_2_0_1" intLanes=":0_0_0 :0_1_0 :0_2_0 :0_3_0" shape="-6.40,6.40 6.40,6.40 6.40,-6.40 2.49,-6.04 -0.71,-4.98 -3.20,-3.20 -4.98,-0.71 -6.04,2.49">
        <request index="0" response="0000" foes="0000" cont="0"/>
        <request index="1" response="0000" foes="0000" cont="0"/>
        <request index="2" response="0000" foes="0000" cont="0"/>
        <request index="3" response="0000" foes="0000" cont="0"/>
    </junction>
    <junction id="1" type="traffic_light" x="0.00" y="2000.00" incLanes="E_3_1_0 E_3_1_1 E_0_1_0 E_0_1_1" intLanes=":1_0_0 :1_1_0 :1_6_0 :1_3_0 :1_4_0 :1_7_0" shape="6.40,2006.40 6.40,1993.60 -6.40,1993.60 -6.04,1997.51 -4.98,2000.71 -3.20,2003.20 -0.71,2004.98 2.49,2006.04">
        <request index="0" response="000000" foes="100000" cont="0"/>
        <request index="1" response="000000" foes="100000" cont="0"/>
        <request index="2" response="011000" foes="011000" cont="1"/>
        <request index="3" response="000000" foes="000100" cont="0"/>
        <request index="4" response="000000" foes="000100" cont="0"/>
        <request index="5" response="000011" foes="000011" cont="1"/>
    </junction>
    <junction id="2" type="traffic_light" x="2000.00" y="0.00" incLanes="E_3_2_0 E_3_2_1 E_0_2_0 E_0_2_1" intLanes=":2_0_0 :2_1_0 :2_2_0 :2_3_0" shape="1993.60,6.40 2006.40,6.40 2006.04,2.49 2004.98,-0.71 2003.20,-3.20 2000.71,-4.98 1997.51,-6.04 1993.60,-6.40">
        <request index="0" response="0000" foes="0000" cont="0"/>
        <request index="1" response="0000" foes="0000" cont="0"/>
        <request index="2" response="0000" foes="0000" cont="0"/>
        <request index="3" response="0000" foes="0000" cont="0"/>
    </junction>
    <junction id="3" type="traffic_light" x="2000.00" y="2000.00" incLanes="E_2_3_0 E_2_3_1 E_1_3_0 E_1_3_1" intLanes=":3_0_0 :3_1_0 :3_2_0 :3_3_0" shape="2006.40,1993.60 1993.60,1993.60 1993.60,2006.40 1997.51,2006.04 2000.71,2004.98 2003.20,2003.20 2004.98,2000.71 2006.04,1997.51">
        <request index="0" response="0000" foes="0000" cont="0"/>
        <request index="1" response="0000" foes="0000" cont="0"/>
        <request index="2" response="0000" foes="0000" cont="0"/>
        <request index="3" response="0000" foes="0000" cont="0"/>
    </junction>

    <junction id=":1_6_0" type="internal" x="4.90" y="1999.80" incLanes=":1_2_0 E_0_1_0 E_0_1_1" intLanes=":1_3_0 :1_4_0"/>
    <junction id=":1_7_0" type="internal" x="0.23" y="1995.09" incLanes=":1_5_0 E_3_1_0 E_3_1_1" intLanes=":1_0_0 :1_1_0"/>

    <connection from="E_0_1" to="E_1_3" fromLane="0" toLane="0" via=":1_3_0" tl="1" linkIndex="3" dir="r" state="O"/>
    <connection from="E_0_1" to="E_1_3" fromLane="1" toLane="1" via=":1_4_0" tl="1" linkIndex="4" dir="r" state="O"/>
    <connection from="E_0_1" to="E_1_0" fromLane="1" toLane="1" via=":1_5_0" tl="1" linkIndex="5" dir="t" state="o"/>
    <connection from="E_0_2" to="E_2_3" fromLane="0" toLane="0" via=":2_2_0" tl="2" linkIndex="2" dir="l" state="O"/>
    <connection from="E_0_2" to="E_2_3" fromLane="1" toLane="1" via=":2_3_0" tl="2" linkIndex="3" dir="l" state="O"/>
    <connection from="E_1_0" to="E_0_2" fromLane="0" toLane="0" via=":0_0_0" tl="0" linkIndex="0" dir="l" state="O"/>
    <connection from="E_1_0" to="E_0_2" fromLane="1" toLane="1" via=":0_1_0" tl="0" linkIndex="1" dir="l" state="O"/>
    <connection from="E_1_3" to="E_3_2" fromLane="0" toLane="0" via=":3_2_0" tl="3" linkIndex="2" dir="r" state="O"/>
    <connection from="E_1_3" to="E_3_2" fromLane="1" toLane="1" via=":3_3_0" tl="3" linkIndex="3" dir="r" state="O"/>
    <connection from="E_2_0" to="E_0_1" fromLane="0" toLane="0" via=":0_2_0" tl="0" linkIndex="2" dir="r" state="O"/>
    <connection from="E_2_0" to="E_0_1" fromLane="1" toLane="1" via=":0_3_0" tl="0" linkIndex="3" dir="r" state="O"/>
    <connection from="E_2_3" to="E_3_1" fromLane="0" toLane="0" via=":3_0_0" tl="3" linkIndex="0" dir="l" state="O"/>
    <connection from="E_2_3" to="E_3_1" fromLane="1" toLane="1" via=":3_1_0" tl="3" linkIndex="1" dir="l" state="O"/>
    <connection from="E_3_1" to="E_1_0" fromLane="0" toLane="0" via=":1_0_0" tl="1" linkIndex="0" dir="l" state="O"/>
    <connection from="E_3_1" to="E_1_0" fromLane="1" toLane="1" via=":1_1_0" tl="1" linkIndex="1" dir="l" state="O"/>
    <connection from="E_3_1" to="E_1_3" fromLane="1" toLane="1" via=":1_2_0" tl="1" linkIndex="2" dir="t" state="o"/>
    <connection from="E_3_2" to="E_2_0" fromLane="0" toLane="0" via=":2_0_0" tl="2" linkIndex="0" dir="r" state="O"/>
    <connection from="E_3_2" to="E_2_0" fromLane="1" toLane="1" via=":2_1_0" tl="2" linkIndex="1" dir="r" state="O"/>

    <connection from=":0_0" to="E_0_2" fromLane="0" toLane="0" dir="l" state="M"/>
    <connection from=":0_1" to="E_0_2" fromLane="0" toLane="1" dir="l" state="M"/>
    <connection from=":0_2" to="E_0_1" fromLane="0" toLane="0" dir="r" state="M"/>
    <connection from=":0_3" to="E_0_1" fromLane="0" toLane="1" dir="r" state="M"/>
    <connection from=":1_0" to="E_1_0" fromLane="0" toLane="0" dir="l" state="M"/>
    <connection from=":1_1" to="E_1_0" fromLane="0" toLane="1" dir="l" state="M"/>
    <connection from=":1_2" to="E_1_3" fromLane="0" toLane="1" via=":1_6_0" dir="t" state="m"/>
    <connection from=":1_6" to="E_1_3" fromLane="0" toLane="1" dir="t" state="M"/>
    <connection from=":1_3" to="E_1_3" fromLane="0" toLane="0" dir="r" state="M"/>
    <connection from=":1_4" to="E_1_3" fromLane="0" toLane="1" dir="r" state="M"/>
    <connection from=":1_5" to="E_1_0" fromLane="0" toLane="1" via=":1_7_0" dir="t" state="m"/>
    <connection from=":1_7" to="E_1_0" fromLane="0" toLane="1" dir="t" state="M"/>
    <connection from=":2_0" to="E_2_0" fromLane="0" toLane="0" dir="r" state="M"/>
    <connection from=":2_1" to="E_2_0" fromLane="0" toLane="1" dir="r" state="M"/>
    <connection from=":2_2" to="E_2_3" fromLane="0" toLane="0" dir="l" state="M"/>
    <connection from=":2_3" to="E_2_3" fromLane="0" toLane="1" dir="l" state="M"/>
    <connection from=":3_0" to="E_3_1" fromLane="0" toLane="0" dir="l" state="M"/>
    <connection from=":3_1" to="E_3_1" fromLane="0" toLane="1" dir="l" state="M"/>
    <connection from=":3_2" to="E_3_2" fromLane="0" toLane="0" dir="r" state="M"/>
    <connection from=":3_3" to="E_3_2" fromLane="0" toLane="1" dir="r" state="M"/>

</net>
