<?xml version='1.0' encoding='utf-8'?>
<edges>
  <edge from="0" id="E_0_1" to="1" type="2L10" />
  <edge from="0" id="E_0_2" to="2" type="2L10" />
  <edge from="1" id="E_1_0" to="0" type="2L10" />
  <edge from="1" id="E_1_3" to="3" type="2L10" />
  <edge from="2" id="E_2_3" to="3" type="2L10" />
  <edge from="2" id="E_2_0" to="0" type="2L10" />
  <edge from="3" id="E_3_2" to="2" type="2L10" />
  <edge from="3" id="E_3_1" to="1" type="2L10" />
</edges>
