<?xml version="1.0" encoding="UTF-8"?>

<!-- generated on 03/08/21 17:41:13 by Eclipse SUMO netedit Version 1.7.0
<configuration xmlns:xsi="http://www.w3.org/2001/XMLSchema-instance" xsi:noNamespaceSchemaLocation="http://sumo.dlr.de/xsd/netconvertConfiguration.xsd">

    <input>
        <sumo-net-file value="demo.net.xml"/>
    </input>

    <output>
        <output-file value="demo.net.xml"/>
    </output>

    <processing>
        <geometry.min-radius.fix.railways value="false"/>
        <geometry.max-grade.fix value="false"/>
        <offset.disable-normalization value="true"/>
        <lefthand value="false"/>
    </processing>

    <junctions>
        <no-turnarounds value="true"/>
        <junctions.corner-detail value="5"/>
        <junctions.limit-turn-speed value="5.5"/>
        <rectangular-lane-cut value="false"/>
    </junctions>

    <pedestrian>
        <walkingareas value="false"/>
    </pedestrian>

    <report>
        <aggregate-warnings value="5"/>
    </report>

</configuration>
-->

<net version="1.6" junctionCornerDetail="5" limitTurnSpeed="5.50" xmlns:xsi="http://www.w3.org/2001/XMLSchema-instance" xsi:noNamespaceSchemaLocation="http://sumo.dlr.de/xsd/net_file.xsd">

    <location netOffset="0.00,0.00" convBoundary="0.00,0.00,1000.00,1000.00" origBoundary="0.00,0.00,1000.00,1000.00" projParameter="!"/>

    <type id="2L10" priority="1" numLanes="2" speed="10.00"/>
    <type id="2L15" priority="1" numLanes="2" speed="15.00"/>
    <type id="2L20" priority="1" numLanes="2" speed="20.00"/>
    <type id="2L25" priority="1" numLanes="2" speed="25.00"/>
    <type id="2L30" priority="1" numLanes="2" speed="30.00"/>
    <type id="2L35" priority="1" numLanes="2" speed="35.00"/>

    <edge id=":IN0_0" function="internal">
        <lane id=":IN0_0_0" index="0" speed="8.96" length="18.06" shape="-4.80,6.40 -4.10,1.50 -2.00,-2.00 1.50,-4.10 6.40,-4.80"/>
    </edge>
    <edge id=":IN0_1" function="internal">
        <lane id=":IN0_1_0" index="0" speed="7.66" length="12.90" shape="-1.60,6.40 -1.10,2.90 0.40,0.40 2.90,-1.10 6.40,-1.60"/>
    </edge>
    <edge id=":IN0_2" function="internal">
        <lane id=":IN0_2_0" index="0" speed="3.90" length="2.58" shape="6.40,4.80 5.70,4.90 5.20,5.20 4.90,5.70 4.80,6.40"/>
    </edge>
    <edge id=":IN0_3" function="internal">
        <lane id=":IN0_3_0" index="0" speed="6.08" length="7.74" shape="6.40,1.60 4.30,1.90 2.80,2.80 1.90,4.30 1.60,6.40"/>
    </edge>
    <edge id=":IN1_0" function="internal">
        <lane id=":IN1_0_0" index="0" speed="20.00" length="0.10" shape="-4.80,500.00 -4.80,500.00"/>
        <lane id=":IN1_0_1" index="1" speed="20.00" length="0.10" shape="-1.60,500.00 -1.60,500.00"/>
    </edge>
    <edge id=":IN1_2" function="internal">
        <lane id=":IN1_2_0" index="0" speed="20.00" length="0.10" shape="4.80,500.00 4.80,500.00"/>
        <lane id=":IN1_2_1" index="1" speed="20.00" length="0.10" shape="1.60,500.00 1.60,500.00"/>
    </edge>
    <edge id=":IN2_0" function="internal">
        <lane id=":IN2_0_0" index="0" speed="8.96" length="18.06" shape="6.40,1004.80 1.50,1004.10 -2.00,1002.00 -4.10,998.50 -4.80,993.60"/>
    </edge>
    <edge id=":IN2_1" function="internal">
        <lane id=":IN2_1_0" index="0" speed="7.66" length="12.90" shape="6.40,1001.60 2.90,1001.10 0.40,999.60 -1.10,997.10 -1.60,993.60"/>
    </edge>
    <edge id=":IN2_2" function="internal">
        <lane id=":IN2_2_0" index="0" speed="3.90" length="2.58" shape="4.80,993.60 4.90,994.30 5.20,994.80 5.70,995.10 6.40,995.20"/>
    </edge>
    <edge id=":IN2_3" function="internal">
        <lane id=":IN2_3_0" index="0" speed="6.08" length="7.74" shape="1.60,993.60 1.90,995.70 2.80,997.20 4.30,998.10 6.40,998.40"/>
    </edge>
    <edge id=":IN3_0" function="internal">
        <lane id=":IN3_0_0" index="0" speed="20.00" length="0.10" shape="500.00,4.80 500.00,4.80"/>
        <lane id=":IN3_0_1" index="1" speed="20.00" length="0.10" shape="500.00,1.60 500.00,1.60"/>
    </edge>
    <edge id=":IN3_2" function="internal">
        <lane id=":IN3_2_0" index="0" speed="20.00" length="0.10" shape="500.00,-4.80 500.00,-4.80"/>
        <lane id=":IN3_2_1" index="1" speed="20.00" length="0.10" shape="500.00,-1.60 500.00,-1.60"/>
    </edge>
    <edge id=":IN4_0" function="internal">
        <lane id=":IN4_0_0" index="0" speed="20.00" length="0.10" shape="500.00,1004.80 500.00,1004.80"/>
        <lane id=":IN4_0_1" index="1" speed="20.00" length="0.10" shape="500.00,1001.60 500.00,1001.60"/>
    </edge>
    <edge id=":IN4_2" function="internal">
        <lane id=":IN4_2_0" index="0" speed="20.00" length="0.10" shape="500.00,995.20 500.00,995.20"/>
        <lane id=":IN4_2_1" index="1" speed="20.00" length="0.10" shape="500.00,998.40 500.00,998.40"/>
    </edge>
    <edge id=":IN5_0" function="internal">
        <lane id=":IN5_0_0" index="0" speed="3.90" length="2.58" shape="995.20,6.40 995.10,5.70 994.80,5.20 994.30,4.90 993.60,4.80"/>
    </edge>
    <edge id=":IN5_1" function="internal">
        <lane id=":IN5_1_0" index="0" speed="6.08" length="7.74" shape="998.40,6.40 998.10,4.30 997.20,2.80 995.70,1.90 993.60,1.60"/>
    </edge>
    <edge id=":IN5_2" function="internal">
        <lane id=":IN5_2_0" index="0" speed="8.96" length="18.06" shape="993.60,-4.80 998.50,-4.10 1002.00,-2.00 1004.10,1.50 1004.80,6.40"/>
    </edge>
    <edge id=":IN5_3" function="internal">
        <lane id=":IN5_3_0" index="0" speed="7.66" length="12.90" shape="993.60,-1.60 997.10,-1.10 999.60,0.40 1001.10,2.90 1001.60,6.40"/>
    </edge>
    <edge id=":IN6_0" function="internal">
        <lane id=":IN6_0_0" index="0" speed="20.00" length="0.10" shape="995.20,500.00 995.20,500.00"/>
        <lane id=":IN6_0_1" index="1" speed="20.00" length="0.10" shape="998.40,500.00 998.40,500.00"/>
    </edge>
    <edge id=":IN6_2" function="internal">
        <lane id=":IN6_2_0" index="0" speed="20.00" length="0.10" shape="1004.80,500.00 1004.80,500.00"/>
        <lane id=":IN6_2_1" index="1" speed="20.00" length="0.10" shape="1001.60,500.00 1001.60,500.00"/>
    </edge>
    <edge id=":IN7_0" function="internal">
        <lane id=":IN7_0_0" index="0" speed="8.96" length="18.06" shape="1004.80,993.60 1004.10,998.50 1002.00,1002.00 998.50,1004.10 993.60,1004.80"/>
    </edge>
    <edge id=":IN7_1" function="internal">
        <lane id=":IN7_1_0" index="0" speed="7.66" length="12.90" shape="1001.60,993.60 1001.10,997.10 999.60,999.60 997.10,1001.10 993.60,1001.60"/>
    </edge>
    <edge id=":IN7_2" function="internal">
        <lane id=":IN7_2_0" index="0" speed="3.65" length="2.56" shape="1001.60,993.60 1000.80,994.80 1000.00,995.20 999.80,995.10"/>
    </edge>
    <edge id=":IN7_6" function="internal">
        <lane id=":IN7_6_0" index="0" speed="3.65" length="2.12" shape="999.80,995.10 999.20,994.80 998.40,993.60"/>
    </edge>
    <edge id=":IN7_3" function="internal">
        <lane id=":IN7_3_0" index="0" speed="3.90" length="2.58" shape="993.60,995.20 994.30,995.10 994.80,994.80 995.10,994.30 995.20,993.60"/>
    </edge>
    <edge id=":IN7_4" function="internal">
        <lane id=":IN7_4_0" index="0" speed="6.08" length="7.74" shape="993.60,998.40 995.70,998.10 997.20,997.20 998.10,995.70 998.40,993.60"/>
    </edge>
    <edge id=":IN7_5" function="internal">
        <lane id=":IN7_5_0" index="0" speed="3.65" length="2.08" shape="993.60,998.40 994.80,999.20 995.09,999.77"/>
    </edge>
    <edge id=":IN7_7" function="internal">
        <lane id=":IN7_7_0" index="0" speed="3.65" length="2.59" shape="995.09,999.77 995.20,1000.00 994.80,1000.80 993.60,1001.60"/>
    </edge>

    <edge id="E_0_1" from="IN0" to="IN1" priority="1" type="2L20">
        <lane id="E_0_1_0" index="0" speed="20.00" length="493.60" shape="4.80,6.40 4.80,500.00"/>
        <lane id="E_0_1_1" index="1" speed="20.00" length="493.60" shape="1.60,6.40 1.60,500.00"/>
    </edge>
    <edge id="E_0_3" from="IN0" to="IN3" priority="1" type="2L20">
        <lane id="E_0_3_0" index="0" speed="20.00" length="493.60" shape="6.40,-4.80 500.00,-4.80"/>
        <lane id="E_0_3_1" index="1" speed="20.00" length="493.60" shape="6.40,-1.60 500.00,-1.60"/>
    </edge>
    <edge id="E_1_0" from="IN1" to="IN0" priority="1" type="2L20">
        <lane id="E_1_0_0" index="0" speed="20.00" length="493.60" shape="-4.80,500.00 -4.80,6.40"/>
        <lane id="E_1_0_1" index="1" speed="20.00" length="493.60" shape="-1.60,500.00 -1.60,6.40"/>
    </edge>
    <edge id="E_1_2" from="IN1" to="IN2" priority="1" type="2L20">
        <lane id="E_1_2_0" index="0" speed="20.00" length="493.60" shape="4.80,500.00 4.80,993.60"/>
        <lane id="E_1_2_1" index="1" speed="20.00" length="493.60" shape="1.60,500.00 1.60,993.60"/>
    </edge>
    <edge id="E_2_1" from="IN2" to="IN1" priority="1" type="2L20">
        <lane id="E_2_1_0" index="0" speed="20.00" length="493.60" shape="-4.80,993.60 -4.80,500.00"/>
        <lane id="E_2_1_1" index="1" speed="20.00" length="493.60" shape="-1.60,993.60 -1.60,500.00"/>
    </edge>
    <edge id="E_2_4" from="IN2" to="IN4" priority="1" type="2L20">
        <lane id="E_2_4_0" index="0" speed="20.00" length="493.60" shape="6.40,995.20 500.00,995.20"/>
        <lane id="E_2_4_1" index="1" speed="20.00" length="493.60" shape="6.40,998.40 500.00,998.40"/>
    </edge>
    <edge id="E_3_0" from="IN3" to="IN0" priority="1" type="2L20">
        <lane id="E_3_0_0" index="0" speed="20.00" length="493.60" shape="500.00,4.80 6.40,4.80"/>
        <lane id="E_3_0_1" index="1" speed="20.00" length="493.60" shape="500.00,1.60 6.40,1.60"/>
    </edge>
    <edge id="E_3_5" from="IN3" to="IN5" priority="1" type="2L20">
        <lane id="E_3_5_0" index="0" speed="20.00" length="493.60" shape="500.00,-4.80 993.60,-4.80"/>
        <lane id="E_3_5_1" index="1" speed="20.00" length="493.60" shape="500.00,-1.60 993.60,-1.60"/>
    </edge>
    <edge id="E_4_2" from="IN4" to="IN2" priority="1" type="2L20">
        <lane id="E_4_2_0" index="0" speed="20.00" length="493.60" shape="500.00,1004.80 6.40,1004.80"/>
        <lane id="E_4_2_1" index="1" speed="20.00" length="493.60" shape="500.00,1001.60 6.40,1001.60"/>
    </edge>
    <edge id="E_4_7" from="IN4" to="IN7" priority="1" type="2L20">
        <lane id="E_4_7_0" index="0" speed="20.00" length="493.60" shape="500.00,995.20 993.60,995.20"/>
        <lane id="E_4_7_1" index="1" speed="20.00" length="493.60" shape="500.00,998.40 993.60,998.40"/>
    </edge>
    <edge id="E_5_3" from="IN5" to="IN3" priority="1" type="2L20">
        <lane id="E_5_3_0" index="0" speed="20.00" length="493.60" shape="993.60,4.80 500.00,4.80"/>
        <lane id="E_5_3_1" index="1" speed="20.00" length="493.60" shape="993.60,1.60 500.00,1.60"/>
    </edge>
    <edge id="E_5_6" from="IN5" to="IN6" priority="1" type="2L20">
        <lane id="E_5_6_0" index="0" speed="20.00" length="493.60" shape="1004.80,6.40 1004.80,500.00"/>
        <lane id="E_5_6_1" index="1" speed="20.00" length="493.60" shape="1001.60,6.40 1001.60,500.00"/>
    </edge>
    <edge id="E_6_5" from="IN6" to="IN5" priority="1" type="2L20">
        <lane id="E_6_5_0" index="0" speed="20.00" length="493.60" shape="995.20,500.00 995.20,6.40"/>
        <lane id="E_6_5_1" index="1" speed="20.00" length="493.60" shape="998.40,500.00 998.40,6.40"/>
    </edge>
    <edge id="E_6_7" from="IN6" to="IN7" priority="1" type="2L20">
        <lane id="E_6_7_0" index="0" speed="20.00" length="493.60" shape="1004.80,500.00 1004.80,993.60"/>
        <lane id="E_6_7_1" index="1" speed="20.00" length="493.60" shape="1001.60,500.00 1001.60,993.60"/>
    </edge>
    <edge id="E_7_4" from="IN7" to="IN4" priority="1" type="2L20">
        <lane id="E_7_4_0" index="0" speed="20.00" length="493.60" shape="993.60,1004.80 500.00,1004.80"/>
        <lane id="E_7_4_1" index="1" speed="20.00" length="493.60" shape="993.60,1001.60 500.00,1001.60"/>
    </edge>
    <edge id="E_7_6" from="IN7" to="IN6" priority="1" type="2L20">
        <lane id="E_7_6_0" index="0" speed="20.00" length="493.60" shape="995.20,993.60 995.20,500.00"/>
        <lane id="E_7_6_1" index="1" speed="20.00" length="493.60" shape="998.40,993.60 998.40,500.00"/>
    </edge>

    <junction id="IN0" type="priority" x="0.00" y="0.00" incLanes="E_1_0_0 E_1_0_1 E_3_0_0 E_3_0_1" intLanes=":IN0_0_0 :IN0_1_0 :IN0_2_0 :IN0_3_0" shape="-6.40,6.40 6.40,6.40 6.40,-6.40 2.49,-6.04 -0.71,-4.98 -3.20,-3.20 -4.98,-0.71 -6.04,2.49">
        <request index="0" response="0000" foes="0000" cont="0"/>
        <request index="1" response="0000" foes="0000" cont="0"/>
        <request index="2" response="0000" foes="0000" cont="0"/>
        <request index="3" response="0000" foes="0000" cont="0"/>
    </junction>
    <junction id="IN1" type="priority" x="0.00" y="500.00" incLanes="E_2_1_0 E_2_1_1 E_0_1_0 E_0_1_1" intLanes=":IN1_0_0 :IN1_0_1 :IN1_2_0 :IN1_2_1" shape="-6.40,500.00 6.40,500.00 -6.40,500.00">
        <request index="0" response="0000" foes="0000" cont="0"/>
        <request index="1" response="0000" foes="0000" cont="0"/>
        <request index="2" response="0000" foes="0000" cont="0"/>
        <request index="3" response="0000" foes="0000" cont="0"/>
    </junction>
    <junction id="IN2" type="priority" x="0.00" y="1000.00" incLanes="E_4_2_0 E_4_2_1 E_1_2_0 E_1_2_1" intLanes=":IN2_0_0 :IN2_1_0 :IN2_2_0 :IN2_3_0" shape="6.40,1006.40 6.40,993.60 -6.40,993.60 -6.04,997.51 -4.98,1000.71 -3.20,1003.20 -0.71,1004.98 2.49,1006.04">
        <request index="0" response="0000" foes="0000" cont="0"/>
        <request index="1" response="0000" foes="0000" cont="0"/>
        <request index="2" response="0000" foes="0000" cont="0"/>
        <request index="3" response="0000" foes="0000" cont="0"/>
    </junction>
    <junction id="IN3" type="priority" x="500.00" y="0.00" incLanes="E_5_3_0 E_5_3_1 E_0_3_0 E_0_3_1" intLanes=":IN3_0_0 :IN3_0_1 :IN3_2_0 :IN3_2_1" shape="500.00,6.40 500.00,-6.40 500.00,6.40">
        <request index="0" response="0000" foes="0000" cont="0"/>
        <request index="1" response="0000" foes="0000" cont="0"/>
        <request index="2" response="0000" foes="0000" cont="0"/>
        <request index="3" response="0000" foes="0000" cont="0"/>
    </junction>
    <junction id="IN4" type="priority" x="500.00" y="1000.00" incLanes="E_7_4_0 E_7_4_1 E_2_4_0 E_2_4_1" intLanes=":IN4_0_0 :IN4_0_1 :IN4_2_0 :IN4_2_1" shape="500.00,1006.40 500.00,993.60 500.00,1006.40">
        <request index="0" response="0000" foes="0000" cont="0"/>
        <request index="1" response="0000" foes="0000" cont="0"/>
        <request index="2" response="0000" foes="0000" cont="0"/>
        <request index="3" response="0000" foes="0000" cont="0"/>
    </junction>
    <junction id="IN5" type="priority" x="1000.00" y="0.00" incLanes="E_6_5_0 E_6_5_1 E_3_5_0 E_3_5_1" intLanes=":IN5_0_0 :IN5_1_0 :IN5_2_0 :IN5_3_0" shape="993.60,6.40 1006.40,6.40 1006.04,2.49 1004.98,-0.71 1003.20,-3.20 1000.71,-4.98 997.51,-6.04 993.60,-6.40">
        <request index="0" response="0000" foes="0000" cont="0"/>
        <request index="1" response="0000" foes="0000" cont="0"/>
        <request index="2" response="0000" foes="0000" cont="0"/>
        <request index="3" response="0000" foes="0000" cont="0"/>
    </junction>
    <junction id="IN6" type="priority" x="1000.00" y="500.00" incLanes="E_7_6_0 E_7_6_1 E_5_6_0 E_5_6_1" intLanes=":IN6_0_0 :IN6_0_1 :IN6_2_0 :IN6_2_1" shape="993.60,500.00 1006.40,500.00 993.60,500.00">
        <request index="0" response="0000" foes="0000" cont="0"/>
        <request index="1" response="0000" foes="0000" cont="0"/>
        <request index="2" response="0000" foes="0000" cont="0"/>
        <request index="3" response="0000" foes="0000" cont="0"/>
    </junction>
    <junction id="IN7" type="priority" x="1000.00" y="1000.00" incLanes="E_6_7_0 E_6_7_1 E_4_7_0 E_4_7_1" intLanes=":IN7_0_0 :IN7_1_0 :IN7_6_0 :IN7_3_0 :IN7_4_0 :IN7_7_0" shape="1006.40,993.60 993.60,993.60 993.60,1006.40 997.51,1006.04 1000.71,1004.98 1003.20,1003.20 1004.98,1000.71 1006.04,997.51">
        <request index="0" response="000000" foes="100000" cont="0"/>
        <request index="1" response="000000" foes="100000" cont="0"/>
        <request index="2" response="011000" foes="011000" cont="1"/>
        <request index="3" response="000000" foes="000100" cont="0"/>
        <request index="4" response="000000" foes="000100" cont="0"/>
        <request index="5" response="000011" foes="000011" cont="1"/>
    </junction>

    <junction id=":IN7_6_0" type="internal" x="999.80" y="995.10" incLanes=":IN7_2_0 E_4_7_0 E_4_7_1" intLanes=":IN7_3_0 :IN7_4_0"/>
    <junction id=":IN7_7_0" type="internal" x="995.09" y="999.77" incLanes=":IN7_5_0 E_6_7_0 E_6_7_1" intLanes=":IN7_0_0 :IN7_1_0"/>

    <connection from="E_0_1" to="E_1_2" fromLane="0" toLane="0" via=":IN1_2_0" dir="s" state="M"/>
    <connection from="E_0_1" to="E_1_2" fromLane="1" toLane="1" via=":IN1_2_1" dir="s" state="M"/>
    <connection from="E_0_3" to="E_3_5" fromLane="0" toLane="0" via=":IN3_2_0" dir="s" state="M"/>
    <connection from="E_0_3" to="E_3_5" fromLane="1" toLane="1" via=":IN3_2_1" dir="s" state="M"/>
    <connection from="E_1_0" to="E_0_3" fromLane="0" toLane="0" via=":IN0_0_0" dir="l" state="M"/>
    <connection from="E_1_0" to="E_0_3" fromLane="1" toLane="1" via=":IN0_1_0" dir="l" state="M"/>
    <connection from="E_1_2" to="E_2_4" fromLane="0" toLane="0" via=":IN2_2_0" dir="r" state="M"/>
    <connection from="E_1_2" to="E_2_4" fromLane="1" toLane="1" via=":IN2_3_0" dir="r" state="M"/>
    <connection from="E_2_1" to="E_1_0" fromLane="0" toLane="0" via=":IN1_0_0" dir="s" state="M"/>
    <connection from="E_2_1" to="E_1_0" fromLane="1" toLane="1" via=":IN1_0_1" dir="s" state="M"/>
    <connection from="E_2_4" to="E_4_7" fromLane="0" toLane="0" via=":IN4_2_0" dir="s" state="M"/>
    <connection from="E_2_4" to="E_4_7" fromLane="1" toLane="1" via=":IN4_2_1" dir="s" state="M"/>
    <connection from="E_3_0" to="E_0_1" fromLane="0" toLane="0" via=":IN0_2_0" dir="r" state="M"/>
    <connection from="E_3_0" to="E_0_1" fromLane="1" toLane="1" via=":IN0_3_0" dir="r" state="M"/>
    <connection from="E_3_5" to="E_5_6" fromLane="0" toLane="0" via=":IN5_2_0" dir="l" state="M"/>
    <connection from="E_3_5" to="E_5_6" fromLane="1" toLane="1" via=":IN5_3_0" dir="l" state="M"/>
    <connection from="E_4_2" to="E_2_1" fromLane="0" toLane="0" via=":IN2_0_0" dir="l" state="M"/>
    <connection from="E_4_2" to="E_2_1" fromLane="1" toLane="1" via=":IN2_1_0" dir="l" state="M"/>
    <connection from="E_4_7" to="E_7_6" fromLane="0" toLane="0" via=":IN7_3_0" dir="r" state="M"/>
    <connection from="E_4_7" to="E_7_6" fromLane="1" toLane="1" via=":IN7_4_0" dir="r" state="M"/>
    <connection from="E_4_7" to="E_7_4" fromLane="1" toLane="1" via=":IN7_5_0" dir="t" state="m"/>
    <connection from="E_5_3" to="E_3_0" fromLane="0" toLane="0" via=":IN3_0_0" dir="s" state="M"/>
    <connection from="E_5_3" to="E_3_0" fromLane="1" toLane="1" via=":IN3_0_1" dir="s" state="M"/>
    <connection from="E_5_6" to="E_6_7" fromLane="0" toLane="0" via=":IN6_2_0" dir="s" state="M"/>
    <connection from="E_5_6" to="E_6_7" fromLane="1" toLane="1" via=":IN6_2_1" dir="s" state="M"/>
    <connection from="E_6_5" to="E_5_3" fromLane="0" toLane="0" via=":IN5_0_0" dir="r" state="M"/>
    <connection from="E_6_5" to="E_5_3" fromLane="1" toLane="1" via=":IN5_1_0" dir="r" state="M"/>
    <connection from="E_6_7" to="E_7_4" fromLane="0" toLane="0" via=":IN7_0_0" dir="l" state="M"/>
    <connection from="E_6_7" to="E_7_4" fromLane="1" toLane="1" via=":IN7_1_0" dir="l" state="M"/>
    <connection from="E_6_7" to="E_7_6" fromLane="1" toLane="1" via=":IN7_2_0" dir="t" state="m"/>
    <connection from="E_7_4" to="E_4_2" fromLane="0" toLane="0" via=":IN4_0_0" dir="s" state="M"/>
    <connection from="E_7_4" to="E_4_2" fromLane="1" toLane="1" via=":IN4_0_1" dir="s" state="M"/>
    <connection from="E_7_6" to="E_6_5" fromLane="0" toLane="0" via=":IN6_0_0" dir="s" state="M"/>
    <connection from="E_7_6" to="E_6_5" fromLane="1" toLane="1" via=":IN6_0_1" dir="s" state="M"/>

    <connection from=":IN0_0" to="E_0_3" fromLane="0" toLane="0" dir="l" state="M"/>
    <connection from=":IN0_1" to="E_0_3" fromLane="0" toLane="1" dir="l" state="M"/>
    <connection from=":IN0_2" to="E_0_1" fromLane="0" toLane="0" dir="r" state="M"/>
    <connection from=":IN0_3" to="E_0_1" fromLane="0" toLane="1" dir="r" state="M"/>
    <connection from=":IN1_0" to="E_1_0" fromLane="0" toLane="0" dir="s" state="M"/>
    <connection from=":IN1_0" to="E_1_0" fromLane="1" toLane="1" dir="s" state="M"/>
    <connection from=":IN1_2" to="E_1_2" fromLane="0" toLane="0" dir="s" state="M"/>
    <connection from=":IN1_2" to="E_1_2" fromLane="1" toLane="1" dir="s" state="M"/>
    <connection from=":IN2_0" to="E_2_1" fromLane="0" toLane="0" dir="l" state="M"/>
    <connection from=":IN2_1" to="E_2_1" fromLane="0" toLane="1" dir="l" state="M"/>
    <connection from=":IN2_2" to="E_2_4" fromLane="0" toLane="0" dir="r" state="M"/>
    <connection from=":IN2_3" to="E_2_4" fromLane="0" toLane="1" dir="r" state="M"/>
    <connection from=":IN3_0" to="E_3_0" fromLane="0" toLane="0" dir="s" state="M"/>
    <connection from=":IN3_0" to="E_3_0" fromLane="1" toLane="1" dir="s" state="M"/>
    <connection from=":IN3_2" to="E_3_5" fromLane="0" toLane="0" dir="s" state="M"/>
    <connection from=":IN3_2" to="E_3_5" fromLane="1" toLane="1" dir="s" state="M"/>
    <connection from=":IN4_0" to="E_4_2" fromLane="0" toLane="0" dir="s" state="M"/>
    <connection from=":IN4_0" to="E_4_2" fromLane="1" toLane="1" dir="s" state="M"/>
    <connection from=":IN4_2" to="E_4_7" fromLane="0" toLane="0" dir="s" state="M"/>
    <connection from=":IN4_2" to="E_4_7" fromLane="1" toLane="1" dir="s" state="M"/>
    <connection from=":IN5_0" to="E_5_3" fromLane="0" toLane="0" dir="r" state="M"/>
    <connection from=":IN5_1" to="E_5_3" fromLane="0" toLane="1" dir="r" state="M"/>
    <connection from=":IN5_2" to="E_5_6" fromLane="0" toLane="0" dir="l" state="M"/>
    <connection from=":IN5_3" to="E_5_6" fromLane="0" toLane="1" dir="l" state="M"/>
    <connection from=":IN6_0" to="E_6_5" fromLane="0" toLane="0" dir="s" state="M"/>
    <connection from=":IN6_0" to="E_6_5" fromLane="1" toLane="1" dir="s" state="M"/>
    <connection from=":IN6_2" to="E_6_7" fromLane="0" toLane="0" dir="s" state="M"/>
    <connection from=":IN6_2" to="E_6_7" fromLane="1" toLane="1" dir="s" state="M"/>
    <connection from=":IN7_0" to="E_7_4" fromLane="0" toLane="0" dir="l" state="M"/>
    <connection from=":IN7_1" to="E_7_4" fromLane="0" toLane="1" dir="l" state="M"/>
    <connection from=":IN7_2" to="E_7_6" fromLane="0" toLane="1" via=":IN7_6_0" dir="t" state="m"/>
    <connection from=":IN7_6" to="E_7_6" fromLane="0" toLane="1" dir="t" state="M"/>
    <connection from=":IN7_3" to="E_7_6" fromLane="0" toLane="0" dir="r" state="M"/>
    <connection from=":IN7_4" to="E_7_6" fromLane="0" toLane="1" dir="r" state="M"/>
    <connection from=":IN7_5" to="E_7_4" fromLane="0" toLane="1" via=":IN7_7_0" dir="t" state="m"/>
    <connection from=":IN7_7" to="E_7_4" fromLane="0" toLane="1" dir="t" state="M"/>

</net>
